LRE1
  PyMOL2.5          3D                             0

 18 20  0  0  0  0  0  0  0  0999 V2000
   13.0630   26.5770   -0.9170 C   0  0  0  0  0  0  0  0  0  0  0  0
   13.6610   25.9090   -2.2010 C   0  0  0  0  0  0  0  0  0  0  0  0
   14.5810   26.4670   -2.9900 C   0  0  0  0  0  0  0  0  0  0  0  0
   14.8640   25.5960   -4.0130 C   0  0  0  0  0  0  0  0  0  0  0  0
   14.1510   24.4780   -4.1160 C   0  0  0  0  0  0  0  0  0  0  0  0
   12.1820   28.6200   -1.8670 C   0  0  0  0  0  0  0  0  0  0  0  0
   11.6800   29.8890   -1.1200 C   0  0  0  0  0  0  0  0  0  0  0  0
   13.1670   29.4970   -1.2320 C   0  0  0  0  0  0  0  0  0  0  0  0
    9.5780   23.5120   -1.2230 N   0  0  0  0  0  0  0  0  0  0  0  0
   11.8870   27.3540   -1.2210 N   0  0  0  0  0  0  0  0  0  0  0  0
   13.1010   24.4330   -2.7710 S   0  0  0  0  0  0  0  0  0  0  0  0
    6.9640   27.2280   -2.9960 Cl  0  0  0  0  0  0  0  0  0  0  0  0
    8.4800   25.3500   -1.9960 N   0  0  0  0  0  0  0  0  0  0  0  0
    9.5630   24.7990   -1.4440 C   0  0  0  0  0  0  0  0  0  0  0  0
   10.6290   25.4680   -1.1020 N   0  0  0  0  0  0  0  0  0  0  0  0
   10.7390   26.7500   -1.4190 C   0  0  0  0  0  0  0  0  0  0  0  0
    9.6280   27.3530   -2.0350 C   0  0  0  0  0  0  0  0  0  0  0  0
    8.4930   26.6390   -2.3120 C   0  0  0  0  0  0  0  0  0  0  0  0
  1 10  1  0  0  0  0
  1  2  1  0  0  0  0
  2  3  4  0  0  0  0
  3  4  4  0  0  0  0
  4  5  4  0  0  0  0
  5 11  4  0  0  0  0
  6  7  1  0  0  0  0
  6  8  1  0  0  0  0
  7  8  1  0  0  0  0
  6 10  1  0  0  0  0
 10 16  1  0  0  0  0
  2 11  4  0  0  0  0
 13 14  4  0  0  0  0
  9 14  1  0  0  0  0
 14 15  4  0  0  0  0
 15 16  4  0  0  0  0
 16 17  4  0  0  0  0
 17 18  4  0  0  0  0
 12 18  1  0  0  0  0
 13 18  4  0  0  0  0
M  END
$$$$
