PIM447
  PyMOL2.5          3D                             0

 55 58  0  0  0  0  0  0  0  0999 V2000
  -40.5840   -5.4540    5.8860 N   0  0  0  0  0  0  0  0  0  0  0  0
  -41.0440   -0.5240    5.2440 C   0  0  0  0  0  0  0  0  0  0  0  0
  -40.5010   -2.8530   -2.0760 O   0  0  0  0  0  0  0  0  0  0  0  0
  -40.9660   -1.8740    4.5420 C   0  0  0  0  0  0  0  0  0  0  0  0
  -36.7290   -3.2430   -0.2500 N   0  0  0  0  0  0  0  0  0  0  0  0
  -40.8620   -3.0170    5.5460 C   0  0  0  0  0  0  0  0  0  0  0  0
  -40.3140   -2.4310    0.1650 N   0  0  0  0  0  0  0  0  0  0  0  0
  -40.7410   -4.4010    4.8800 C   0  0  0  0  0  0  0  0  0  0  0  0
  -42.9350   -2.0310    0.3670 N   0  0  0  0  0  0  0  0  0  0  0  0
  -39.5270   -4.3670    3.9490 C   0  0  0  0  0  0  0  0  0  0  0  0
  -39.7190   -3.2860    2.8850 C   0  0  0  0  0  0  0  0  0  0  0  0
  -39.7900   -1.9210    3.5720 C   0  0  0  0  0  0  0  0  0  0  0  0
  -38.6900   -3.3130    1.7630 C   0  0  0  0  0  0  0  0  0  0  0  0
  -37.3800   -3.7140    2.0020 C   0  0  0  0  0  0  0  0  0  0  0  0
  -36.4530   -3.6660    0.9820 C   0  0  0  0  0  0  0  0  0  0  0  0
  -37.9850   -2.8640   -0.4850 C   0  0  0  0  0  0  0  0  0  0  0  0
  -39.0090   -2.8770    0.4690 C   0  0  0  0  0  0  0  0  0  0  0  0
  -40.9940   -2.5110   -1.0020 C   0  0  0  0  0  0  0  0  0  0  0  0
  -42.4570   -2.2000   -0.8760 C   0  0  0  0  0  0  0  0  0  0  0  0
  -43.2690   -2.2150   -2.0050 C   0  0  0  0  0  0  0  0  0  0  0  0
  -44.6380   -2.1050   -1.8270 C   0  0  0  0  0  0  0  0  0  0  0  0
  -45.1360   -1.9630   -0.5540 C   0  0  0  0  0  0  0  0  0  0  0  0
  -44.2610   -1.9200    0.5320 C   0  0  0  0  0  0  0  0  0  0  0  0
  -44.7350   -1.7710    1.9400 C   0  0  0  0  0  0  0  0  0  0  0  0
  -45.6500   -0.7960    2.3210 C   0  0  0  0  0  0  0  0  0  0  0  0
  -46.1530   -0.6720    3.5920 C   0  0  0  0  0  0  0  0  0  0  0  0
  -45.7270   -1.5680    4.5600 C   0  0  0  0  0  0  0  0  0  0  0  0
  -44.8000   -2.5500    4.2510 C   0  0  0  0  0  0  0  0  0  0  0  0
  -44.3300   -2.6200    2.9600 C   0  0  0  0  0  0  0  0  0  0  0  0
  -46.4730   -1.8840   -0.3750 F   0  0  0  0  0  0  0  0  0  0  0  0
  -46.0540    0.0830    1.3780 F   0  0  0  0  0  0  0  0  0  0  0  0
  -43.3970   -3.5570    2.6630 F   0  0  0  0  0  0  0  0  0  0  0  0
  -41.8870   -1.9970    3.9780 H   0  0  0  0  0  0  0  0  0  0  0  0
  -41.6400   -4.6340    4.3120 H   0  0  0  0  0  0  0  0  0  0  0  0
  -40.7120   -3.4420    2.4680 H   0  0  0  0  0  0  0  0  0  0  0  0
  -41.8320   -0.4870    5.9940 H   0  0  0  0  0  0  0  0  0  0  0  0
  -40.1080   -0.2940    5.7520 H   0  0  0  0  0  0  0  0  0  0  0  0
  -41.2260    0.2870    4.5410 H   0  0  0  0  0  0  0  0  0  0  0  0
  -40.0080   -2.8340    6.1960 H   0  0  0  0  0  0  0  0  0  0  0  0
  -41.7250   -3.0030    6.2110 H   0  0  0  0  0  0  0  0  0  0  0  0
  -39.6660   -5.4790    6.3190 H   0  0  0  0  0  0  0  0  0  0  0  0
  -41.3080   -5.4470    6.5950 H   0  0  0  0  0  0  0  0  0  0  0  0
  -38.6310   -4.1750    4.5360 H   0  0  0  0  0  0  0  0  0  0  0  0
  -39.3470   -5.3320    3.4750 H   0  0  0  0  0  0  0  0  0  0  0  0
  -39.8790   -1.1220    2.8380 H   0  0  0  0  0  0  0  0  0  0  0  0
  -38.8660   -1.7220    4.1120 H   0  0  0  0  0  0  0  0  0  0  0  0
  -37.0450   -4.0510    2.9820 H   0  0  0  0  0  0  0  0  0  0  0  0
  -35.4380   -4.0280    1.1300 H   0  0  0  0  0  0  0  0  0  0  0  0
  -38.1510   -2.5110   -1.5010 H   0  0  0  0  0  0  0  0  0  0  0  0
  -40.7530   -1.9130    0.9180 H   0  0  0  0  0  0  0  0  0  0  0  0
  -42.8590   -2.2960   -3.0100 H   0  0  0  0  0  0  0  0  0  0  0  0
  -45.3160   -2.1640   -2.6740 H   0  0  0  0  0  0  0  0  0  0  0  0
  -46.8660    0.1130    3.8370 H   0  0  0  0  0  0  0  0  0  0  0  0
  -46.1300   -1.5080    5.5700 H   0  0  0  0  0  0  0  0  0  0  0  0
  -44.4590   -3.2480    5.0130 H   0  0  0  0  0  0  0  0  0  0  0  0
  1 41  1  0  0  0  0
  1 42  1  0  0  0  0
  2 36  1  0  0  0  0
  2 37  1  0  0  0  0
  2 38  1  0  0  0  0
  2  4  1  0  0  0  0
  4  6  1  0  0  0  0
  4 12  1  0  0  0  0
  4 33  1  0  0  0  0
  5 15  4  0  0  0  0
  6  8  1  0  0  0  0
  6 39  1  0  0  0  0
  6 40  1  0  0  0  0
  7 50  1  0  0  0  0
  1  8  1  0  0  0  0
  8 10  1  0  0  0  0
  8 34  1  0  0  0  0
 10 43  1  0  0  0  0
 10 44  1  0  0  0  0
 10 11  1  0  0  0  0
 11 12  1  0  0  0  0
 11 35  1  0  0  0  0
 12 45  1  0  0  0  0
 12 46  1  0  0  0  0
 11 13  1  0  0  0  0
 13 14  4  0  0  0  0
 14 47  1  0  0  0  0
 14 15  4  0  0  0  0
 15 48  1  0  0  0  0
  5 16  4  0  0  0  0
 16 49  1  0  0  0  0
  7 17  1  0  0  0  0
 13 17  4  0  0  0  0
 16 17  4  0  0  0  0
  3 18  2  0  0  0  0
  7 18  1  0  0  0  0
 18 19  1  0  0  0  0
  9 19  4  0  0  0  0
 19 20  4  0  0  0  0
 20 21  4  0  0  0  0
 20 51  1  0  0  0  0
 21 22  4  0  0  0  0
 21 52  1  0  0  0  0
 22 23  4  0  0  0  0
 22 30  1  0  0  0  0
  9 23  4  0  0  0  0
 23 24  1  0  0  0  0
 24 25  4  0  0  0  0
 24 29  4  0  0  0  0
 25 26  4  0  0  0  0
 25 31  1  0  0  0  0
 26 27  4  0  0  0  0
 26 53  1  0  0  0  0
 27 28  4  0  0  0  0
 27 54  1  0  0  0  0
 28 29  4  0  0  0  0
 28 55  1  0  0  0  0
 29 32  1  0  0  0  0
M  END
$$$$
